EMPTY MOLECULE DESCRIBING GYPSUM-DL PARAMETERS
     RDKit          2D

  0  0  0  0  0  0  0  0  0  0999 V2000
M  END
>  <source>  (1) 
/home/mandar/YAP_TAZ/TEAD4_YAP/docking/chimera/AD4_scoring/quinoline_grid_file/simulation_Setup/gypsm_dl/q2.smi

>  <output_folder>  (1) 
output_folder

>  <separate_output_files>  (1) 
False

>  <add_pdb_output>  (1) 
False

>  <add_html_output>  (1) 
False

>  <num_processors>  (1) 
1

>  <start_time>  (1) 
0

>  <end_time>  (1) 
0

>  <run_time>  (1) 
0

>  <min_ph>  (1) 
7.4

>  <max_ph>  (1) 
7.4

>  <pka_precision>  (1) 
0.0

>  <thoroughness>  (1) 
3

>  <max_variants_per_compound>  (1) 
5

>  <second_embed>  (1) 
False

>  <2d_output_only>  (1) 
False

>  <skip_optimize_geometry>  (1) 
False

>  <skip_alternate_ring_conformations>  (1) 
False

>  <skip_adding_hydrogen>  (1) 
False

>  <skip_making_tautomers>  (1) 
False

>  <skip_enumerate_chiral_mol>  (1) 
False

>  <skip_enumerate_double_bonds>  (1) 
False

>  <let_tautomers_change_chirality>  (1) 
False

>  <use_durrant_lab_filters>  (1) 
True

>  <job_manager>  (1) 
multiprocessing

>  <cache_prerun>  (1) 
False

>  <test>  (1) 
False

>  <Parallelizer>  (1) 
<gypsum_dl.Parallelizer.Parallelizer object at 0x7f8b3439a8e0>

$$$$
untitled_line_1
     RDKit          3D

 48 50  0  0  0  0  0  0  0  0999 V2000
    5.7722    1.9594   -1.8735 C   0  0  0  0  0  0  0  0  0  0  0  0
    4.4976    1.1228   -1.7671 C   0  0  0  0  0  0  0  0  0  0  0  0
    3.4138    1.7924   -0.9656 C   0  0  0  0  0  0  0  0  0  0  0  0
    3.5993    2.9360   -0.4646 O   0  0  0  0  0  0  0  0  0  0  0  0
    2.1635    1.1127   -0.7769 N   0  0  0  0  0  0  0  0  0  0  0  0
    1.0691    1.6547    0.0398 C   0  0  1  0  0  0  0  0  0  0  0  0
   -0.2633    1.6696   -0.6990 C   0  0  0  0  0  0  0  0  0  0  0  0
   -1.4053    2.1417   -0.0305 C   0  0  0  0  0  0  0  0  0  0  0  0
   -2.6456    2.1840   -0.6714 C   0  0  0  0  0  0  0  0  0  0  0  0
   -2.7813    1.7688   -2.0111 C   0  0  0  0  0  0  0  0  0  0  0  0
   -4.0714    1.8072   -2.6769 N   0  0  0  0  0  0  0  0  0  0  0  0
   -4.1564    1.8004   -4.1422 C   0  0  0  0  0  0  0  0  0  0  0  0
   -5.3138    1.8481   -1.8956 C   0  0  0  0  0  0  0  0  0  0  0  0
   -1.6299    1.3180   -2.6869 C   0  0  0  0  0  0  0  0  0  0  0  0
   -0.3897    1.2743   -2.0440 C   0  0  0  0  0  0  0  0  0  0  0  0
    0.9794    0.8666    1.3352 C   0  0  0  0  0  0  0  0  0  0  0  0
    1.3243    1.4915    2.5477 C   0  0  0  0  0  0  0  0  0  0  0  0
    1.2603    0.7935    3.7555 C   0  0  0  0  0  0  0  0  0  0  0  0
    0.8530   -0.5451    3.7718 C   0  0  0  0  0  0  0  0  0  0  0  0
    0.7802   -1.2668    4.9707 C   0  0  0  0  0  0  0  0  0  0  0  0
    0.3701   -2.6012    4.9536 C   0  0  0  0  0  0  0  0  0  0  0  0
    0.0369   -3.2021    3.7377 C   0  0  0  0  0  0  0  0  0  0  0  0
    0.1120   -2.4913    2.5811 N   0  0  0  0  0  0  0  0  0  0  0  0
    0.5080   -1.1885    2.5632 C   0  0  0  0  0  0  0  0  0  0  0  0
    0.5725   -0.4869    1.3510 C   0  0  0  0  0  0  0  0  0  0  0  0
    0.2274   -1.1360    0.1687 O   0  0  0  0  0  1  0  0  0  0  0  0
    5.5578    2.9293   -2.3711 H   0  0  0  0  0  0  0  0  0  0  0  0
    6.1961    2.1470   -0.8635 H   0  0  0  0  0  0  0  0  0  0  0  0
    6.5259    1.4109   -2.4770 H   0  0  0  0  0  0  0  0  0  0  0  0
    4.1127    0.9211   -2.7897 H   0  0  0  0  0  0  0  0  0  0  0  0
    4.7454    0.1498   -1.2911 H   0  0  0  0  0  0  0  0  0  0  0  0
    2.0841    0.1359   -1.1402 H   0  0  0  0  0  0  0  0  0  0  0  0
    1.2848    2.7198    0.2761 H   0  0  0  0  0  0  0  0  0  0  0  0
   -1.3350    2.4785    0.9962 H   0  0  0  0  0  0  0  0  0  0  0  0
   -3.4919    2.5590   -0.1142 H   0  0  0  0  0  0  0  0  0  0  0  0
   -3.8807    0.7984   -4.5312 H   0  0  0  0  0  0  0  0  0  0  0  0
   -5.1824    2.0386   -4.4943 H   0  0  0  0  0  0  0  0  0  0  0  0
   -3.4730    2.5678   -4.5635 H   0  0  0  0  0  0  0  0  0  0  0  0
   -5.4284    2.8447   -1.4210 H   0  0  0  0  0  0  0  0  0  0  0  0
   -6.2047    1.6628   -2.5321 H   0  0  0  0  0  0  0  0  0  0  0  0
   -5.2938    1.0601   -1.1134 H   0  0  0  0  0  0  0  0  0  0  0  0
   -1.6799    0.9867   -3.7145 H   0  0  0  0  0  0  0  0  0  0  0  0
    0.4632    0.9311   -2.6126 H   0  0  0  0  0  0  0  0  0  0  0  0
    1.6460    2.5254    2.5609 H   0  0  0  0  0  0  0  0  0  0  0  0
    1.5299    1.2996    4.6749 H   0  0  0  0  0  0  0  0  0  0  0  0
    1.0385   -0.8015    5.9144 H   0  0  0  0  0  0  0  0  0  0  0  0
    0.3109   -3.1657    5.8751 H   0  0  0  0  0  0  0  0  0  0  0  0
   -0.2819   -4.2356    3.7136 H   0  0  0  0  0  0  0  0  0  0  0  0
  1  2  1  0
  2  3  1  0
  3  4  2  0
  3  5  1  0
  5  6  1  0
  6  7  1  0
  7  8  2  0
  8  9  1  0
  9 10  2  0
 10 11  1  0
 11 12  1  0
 11 13  1  0
 10 14  1  0
 14 15  2  0
  6 16  1  0
 16 17  2  0
 17 18  1  0
 18 19  2  0
 19 20  1  0
 20 21  2  0
 21 22  1  0
 22 23  2  0
 23 24  1  0
 24 25  2  0
 25 26  1  0
 15  7  1  0
 25 16  1  0
 24 19  1  0
  1 27  1  0
  1 28  1  0
  1 29  1  0
  2 30  1  0
  2 31  1  0
  5 32  1  0
  6 33  1  1
  8 34  1  0
  9 35  1  0
 12 36  1  0
 12 37  1  0
 12 38  1  0
 13 39  1  0
 13 40  1  0
 13 41  1  0
 14 42  1  0
 15 43  1  0
 17 44  1  0
 18 45  1  0
 20 46  1  0
 21 47  1  0
 22 48  1  0
M  CHG  1  26  -1
M  END
>  <UniqueID>  (2) 
1

>  <SMILES>  (2) 
CCC(=O)N[C@@H](c1ccc(N(C)C)cc1)c1ccc2cccnc2c1[O-]

>  <Energy>  (2) 
54.17378437343711

>  <Genealogy>  (2) 
CCC(=O)N[C@@H](c1ccc(N(C)C)cc1)c1ccc2cccnc2c1[O-] (protonated)
CCC(=O)N[C@@H](c1ccc(N(C)C)cc1)c1ccc2cccnc2c1[O-] (3D coordinates assigned)
CCC(=O)N[C@@H](c1ccc(N(C)C)cc1)c1ccc2cccnc2c1[O-] (optimized conformer: 54.17378437343711 kcal/mol)

$$$$
